[TITLE]
Scenario: Base 
Date: 08/11/2019 15:16:54 

[JUNCTIONS]
;ID              	Elev        	Demand      	Pattern         
 7__demand__1    	10          	0.28        	4               	;
 7__demand__0    	10          	0.42        	4               	;
 4__demand__1    	10          	0.28        	4               	;
 4__demand__0    	30          	0.42        	4               	;
 3__demand__1    	10          	0.28        	4               	;
 3__demand__0    	10          	0.42        	4               	;
 6__demand__1    	10          	0.28        	4               	;
 6__demand__0    	10          	0.42        	4               	;
 5__demand__1    	10          	0.28        	4               	;
 5__demand__0    	10          	0.42        	4               	;
 2__demand__1    	10          	0.28        	4               	;
 2__demand__0    	10          	0.42        	4               	;
 7               	30          	0           	                	;
 4               	30          	0           	                	;
 3               	30          	0           	                	;
 6               	30          	0           	                	;
 5               	30          	0           	                	;
 2               	30          	0           	                	;
 J-1             	74          	-4.2        	6hrs            	;
 1               	65          	0           	                	;
 8               	65          	0           	                	;

[RESERVOIRS]
;ID              	Head        	Pattern         

[TANKS]
;ID              	Elevation   	InitLevel   	MinLevel    	MaxLevel    	Diameter    	MinVol      	VolCurve
 T12             	36          	1           	0           	1           	5.2338924877	0.00283168463686774	                	;
 T11             	33          	1           	0           	1           	6.4101829818	0.00283168463686774	                	;
 T10             	36          	1           	0           	1           	5.2338924877	0.00283168463686774	                	;
 T9              	33          	1           	0           	1           	6.4101829818	0.00283168463686774	                	;
 T8              	36          	1           	0           	1           	5.2338924877	0.00283168463686774	                	;
 T7              	33          	1           	0           	1           	6.4101829818	0.00283168463686774	                	;
 T6              	36          	1           	0           	1           	5.2338924877	0.00283168463686774	                	;
 T5              	33          	1           	0           	1           	6.4101829818	0.00283168463686774	                	;
 T4              	36          	1           	0           	1           	5.2338924877	0.00283168463686774	                	;
 T3              	33          	1           	0           	1           	6.4101829818	0.00283168463686774	                	;
 T2              	36          	1           	0           	1           	5.2338924877	0.00283168463686774	                	;
 T1              	33          	1           	0           	1           	6.4101829818	0.00283168463686774	                	;
 T0              	70          	3           	0           	3           	8           	0.00283168463686774	                	;

[PIPES]
;ID              	Node1           	Node2           	Length      	Diameter    	Roughness   	MinorLoss   	Status
 2__tank__1      	2               	T2              	10          	44.390729488	100         	0           	CV    	;
 2__demand__0    	T1              	2__demand__0    	1           	51.789842185	100         	0           	Open  	;
 2__tank__0      	2               	T1              	10          	51.789842185	100         	0           	CV    	;
 5               	4               	7               	500         	100         	100         	0           	Open  	;
 4               	3               	4               	1000        	100         	100         	0           	Open  	;
 3               	6               	3               	500         	100         	100         	0           	Open  	;
 6               	5               	6               	500         	125         	100         	0           	Open  	;
 2               	2               	5               	500         	150         	100         	0           	Open  	;
 1               	8               	2               	250         	150         	100         	0           	Open  	;
 7__demand__1    	T12             	7__demand__1    	1           	44.390729488	100         	0           	Open  	;
 7__tank__1      	7               	T12             	10          	44.390729488	100         	0           	CV    	;
 7__demand__0    	T11             	7__demand__0    	1           	51.789842185	100         	0           	Open  	;
 7__tank__0      	7               	T11             	10          	51.789842185	100         	0           	CV    	;
 4__demand__1    	T10             	4__demand__1    	1           	44.390729488	100         	0           	Open  	;
 4__tank__1      	4               	T10             	10          	44.390729488	100         	0           	CV    	;
 4__demand__0    	T9              	4__demand__0    	1           	51.789842185	100         	0           	Open  	;
 4__tank__0      	4               	T9              	10          	51.789842185	100         	0           	CV    	;
 3__demand__1    	T8              	3__demand__1    	1           	44.390729488	100         	0           	Open  	;
 3__tank__1      	3               	T8              	10          	44.390729488	100         	0           	CV    	;
 3__demand__0    	T7              	3__demand__0    	1           	51.789842185	100         	0           	Open  	;
 3__tank__0      	3               	T7              	10          	51.789842185	100         	0           	CV    	;
 6__demand__1    	T6              	6__demand__1    	1           	44.390729488	100         	0           	Open  	;
 6__tank__1      	6               	T6              	10          	44.390729488	100         	0           	CV    	;
 6__demand__0    	T5              	6__demand__0    	1           	51.789842185	100         	0           	Open  	;
 6__tank__0      	6               	T5              	10          	51.789842185	100         	0           	CV    	;
 5__demand__1    	T4              	5__demand__1    	1           	44.390729488	100         	0           	Open  	;
 5__tank__1      	5               	T4              	10          	44.390729488	100         	0           	CV    	;
 5__demand__0    	T3              	5__demand__0    	1           	51.789842185	100         	0           	Open  	;
 5__tank__0      	5               	T3              	10          	51.789842185	100         	0           	CV    	;
 2__demand__1    	T2              	2__demand__1    	1           	44.390729488	100         	0           	Open  	;
 P-1             	T0              	J-1             	500         	200         	130         	0           	Open  	;
 7               	T0              	1               	250         	150         	100         	0           	Open  	;

[PUMPS]
;ID              	Node1           	Node2           	Parameters

[VALVES]
;ID              	Node1           	Node2           	Diameter    	Type	Setting     	MinorLoss   
 8               	1               	8               	150         	FCV 	6.5         	0           	;

[TAGS]

[DEMANDS]
;Junction        	Demand      	Pattern         	Category

[STATUS]
;ID              	Status/Setting

[PATTERNS]
;ID              	Multipliers
;
 1               	1.26        	1.04        	0.97        	0.97        	0.89        	1.19        
 1               	1.28        	0.67        	0.67        	1.34        	2.46        	0.97        
 1               	0.92        	0.68        	1.43        	0.61        	0.31        	0.78        
 1               	0.37        	0.67        	1.26        	1.56        	1.19        	1.26        
 1               	0.6         	1.1         	1.03        	0.73        	0.88        	1.06        
 1               	0.99        	1.72        	1.12        	1.34        	1.12        	0.97        
 1               	1.04        	1.15        	0.91        	0.61        	0.68        	0.46        
 1               	0.51        	0.74        	1.12        	1.34        	1.26        	0.97        
 1               	0.82        	1.37        	1.03        	0.81        	0.88        	0.81        
 1               	0.81        
;
 2               	0.96        	0.96        	0.96        	0.96        	0.96        	0.96        
 2               	0.62        	0           	0           	0           	0           	0           
 2               	0.8         	1           	1           	1           	1           	0.15        
 2               	0           	0           	0           	0           	0           	0           
 2               	0.55        	0.92        	0.92        	0.92        	0.92        	0.9         
 2               	0.9         	0.45        	0           	0           	0           	0           
 2               	0           	0.7         	1           	1           	1           	1           
 2               	0.2         	0           	0           	0           	0           	0           
 2               	0           	0.74        	0.92        	0.92        	0.92        	0.92        
 2               	0.92        
;
 3               	0.98        	1.02        	1.05        	0.99        	0.64        	0.46        
 3               	0.35        	0.35        	0.35        	0.35        	0.35        	0.35        
 3               	0.17        	0.17        	0.13        	0.13        	0.13        	0.15        
 3               	0.15        	0.15        	0.15        	0.15        	0.15        	0.15        
 3               	0.15        	0.12        	0.1         	0.08        	0.11        	0.09        
 3               	0.09        	0.08        	0.08        	0.08        	0.08        	0.08        
 3               	0.08        	0.09        	0.07        	0.07        	0.09        	0.09        
 3               	0.09        	0.09        	0.09        	0.09        	0.09        	0.09        
 3               	0.09        	0.08        	0.35        	0.72        	0.82        	0.92        
 3               	1           
;
 4               	0.4         	0.4         	0.5         	1           	1.6         	1.8         
 4               	2           	1.5         	1.2         	1           	0.8         	0.6         
 4               	0.5         	0.6         	0.8         	1           	1.6         	2           
 4               	1.8         	1           	0.6         	0.4         	0.3         	0.4         
;
 nowatercut      	1           	1           	1           	1           	1           	1           
 nowatercut      	1           	1           	1           	1           	1           	1           
 nowatercut      	1           	1           	1           	1           	1           	1           
 nowatercut      	1           	1           	1           	1           	1           	1           
 nowatercut      	1           	1           	1           	1           	1           	1           
 nowatercut      	1           	1           	1           	1           	1           	1           
 nowatercut      	1           	1           	1           	1           	1           	1           
 nowatercut      	1           	1           	1           	1           	1           	1           
 nowatercut      	1           	1           	1           	1           	1           	1           
 nowatercut      	1           	1           	1           	1           	1           	1           
 nowatercut      	1           	1           	1           	1           	1           	1           
 nowatercut      	1           	1           	1           	1           	1           	1           
 nowatercut      	1           	1           	1           	1           	1           	1           
 nowatercut      	1           	1           	1           	1           	1           	1           
 nowatercut      	1           	1           	1           	1           	1           	1           
 nowatercut      	1           	1           	1           	1           	1           	1           
 nowatercut      	1           	1           	1           	1           	1           	1           
 nowatercut      	1           	1           	1           	1           	1           	1           
 nowatercut      	1           	1           	1           	1           	1           	1           
 nowatercut      	1           	1           	1           	1           	1           	1           
 nowatercut      	1           	1           	1           	1           	1           	1           
 nowatercut      	1           	1           	1           	1           	1           	1           
 nowatercut      	1           	1           	1           	1           	1           	1           
 nowatercut      	1           	1           	1           	1           	1           	1           
 nowatercut      	1           	1           	1           	1           	1           	1           
 nowatercut      	1           	1           	1           	1           	1           	1           
 nowatercut      	1           	1           	1           	1           	1           	1           
 nowatercut      	1           	1           	1           	1           	1           	1           
 nowatercut      	1           	1           	1           	1           	1           	1           
 nowatercut      	1           	1           	1           	1           	1           	1           
 nowatercut      	1           	1           	1           	1           	1           	1           
 nowatercut      	1           	1           	1           	1           	1           	1           
;
 6hrs            	1           	1           	1           	1           	1           	1           
 6hrs            	1           	0           	0           	0           	0           	0           
 6hrs            	0           	1           	1           	1           	1           	1           
 6hrs            	1           	0           	0           	0           	0           	0           
 6hrs            	0           	1           	1           	1           	1           	1           
 6hrs            	1           	0           	0           	0           	0           	0           
 6hrs            	0           	1           	1           	1           	1           	1           
 6hrs            	1           	0           	0           	0           	0           	0           
 6hrs            	0           	1           	1           	1           	1           	1           
 6hrs            	1           	0           	0           	0           	0           	0           
 6hrs            	0           	1           	1           	1           	1           	1           
 6hrs            	1           	0           	0           	0           	0           	0           
 6hrs            	0           	1           	1           	1           	1           	1           
 6hrs            	1           	0           	0           	0           	0           	0           
 6hrs            	0           	1           	1           	1           	1           	1           
 6hrs            	1           	0           	0           	0           	0           	0           
 6hrs            	0           	1           	1           	1           	1           	1           
 6hrs            	1           	0           	0           	0           	0           	0           
 6hrs            	0           	1           	1           	1           	1           	1           
 6hrs            	1           	0           	0           	0           	0           	0           
 6hrs            	0           	1           	1           	1           	1           	1           
 6hrs            	1           	0           	0           	0           	0           	0           
 6hrs            	0           	1           	1           	1           	1           	1           
 6hrs            	1           	0           	0           	0           	0           	0           
 6hrs            	0           	1           	1           	1           	1           	1           
 6hrs            	1           	0           	0           	0           	0           	0           
 6hrs            	0           	1           	1           	1           	1           	1           
 6hrs            	1           	0           	0           	0           	0           	0           
 6hrs            	0           	1           	1           	1           	1           	1           
 6hrs            	1           	0           	0           	0           	0           	0           
 6hrs            	0           	1           	1           	1           	1           	1           
 6hrs            	1           	0           	0           	0           	0           	0           
;
 12hrs           	1           	1           	1           	1           	1           	1           
 12hrs           	1           	1           	1           	1           	1           	1           
 12hrs           	0           	0           	0           	0           	0           	0           
 12hrs           	0           	0           	0           	0           	0           	0           
 12hrs           	0           	1           	1           	1           	1           	1           
 12hrs           	1           	1           	1           	1           	1           	1           
 12hrs           	0           	0           	0           	0           	0           	0           
 12hrs           	0           	0           	0           	0           	0           	0           
 12hrs           	0           	1           	1           	1           	1           	1           
 12hrs           	1           	1           	1           	1           	1           	1           
 12hrs           	0           	0           	0           	0           	0           	0           
 12hrs           	0           	0           	0           	0           	0           	0           
 12hrs           	0           	1           	1           	1           	1           	1           
 12hrs           	1           	1           	1           	1           	1           	1           
 12hrs           	0           	0           	0           	0           	0           	0           
 12hrs           	0           	0           	0           	0           	0           	0           
 12hrs           	0           	1           	1           	1           	1           	1           
 12hrs           	1           	1           	1           	1           	1           	1           
 12hrs           	0           	0           	0           	0           	0           	0           
 12hrs           	0           	0           	0           	0           	0           	0           
 12hrs           	0           	1           	1           	1           	1           	1           
 12hrs           	1           	1           	1           	1           	1           	1           
 12hrs           	0           	0           	0           	0           	0           	0           
 12hrs           	0           	0           	0           	0           	0           	0           
 12hrs           	0           	1           	1           	1           	1           	1           
 12hrs           	1           	1           	1           	1           	1           	1           
 12hrs           	0           	0           	0           	0           	0           	0           
 12hrs           	0           	0           	0           	0           	0           	0           
 12hrs           	0           	1           	1           	1           	1           	1           
 12hrs           	1           	1           	1           	1           	1           	1           
 12hrs           	0           	0           	0           	0           	0           	0           
 12hrs           	0           	0           	0           	0           	0           	0           
;
 1day            	1           	1           	1           	1           	1           	1           
 1day            	1           	1           	1           	1           	1           	1           
 1day            	1           	1           	1           	1           	1           	1           
 1day            	1           	1           	1           	1           	1           	1           
 1day            	1           	0           	0           	0           	0           	0           
 1day            	0           	0           	0           	0           	0           	0           
 1day            	0           	0           	0           	0           	0           	0           
 1day            	0           	0           	0           	0           	0           	0           
 1day            	0           	1           	1           	1           	1           	1           
 1day            	1           	1           	1           	1           	1           	1           
 1day            	1           	1           	1           	1           	1           	1           
 1day            	1           	1           	1           	1           	1           	1           
 1day            	1           	0           	0           	0           	0           	0           
 1day            	0           	0           	0           	0           	0           	0           
 1day            	0           	0           	0           	0           	0           	0           
 1day            	0           	0           	0           	0           	0           	0           
 1day            	0           	1           	1           	1           	1           	1           
 1day            	1           	1           	1           	1           	1           	1           
 1day            	1           	1           	1           	1           	1           	1           
 1day            	1           	1           	1           	1           	1           	1           
 1day            	1           	0           	0           	0           	0           	0           
 1day            	0           	0           	0           	0           	0           	0           
 1day            	0           	0           	0           	0           	0           	0           
 1day            	0           	0           	0           	0           	0           	0           
 1day            	0           	1           	1           	1           	1           	1           
 1day            	1           	1           	1           	1           	1           	1           
 1day            	1           	1           	1           	1           	1           	1           
 1day            	1           	1           	1           	1           	1           	1           
 1day            	1           	0           	0           	0           	0           	0           
 1day            	0           	0           	0           	0           	0           	0           
 1day            	0           	0           	0           	0           	0           	0           
 1day            	0           	0           	0           	0           	0           	0           
;
 2day-1day       	1           	1           	1           	1           	1           	1           
 2day-1day       	1           	1           	1           	1           	1           	1           
 2day-1day       	1           	1           	1           	1           	1           	1           
 2day-1day       	1           	1           	1           	1           	1           	1           
 2day-1day       	1           	1           	1           	1           	1           	1           
 2day-1day       	1           	1           	1           	1           	1           	1           
 2day-1day       	1           	1           	1           	1           	1           	1           
 2day-1day       	1           	1           	1           	1           	1           	1           
 2day-1day       	1           	0           	0           	0           	0           	0           
 2day-1day       	0           	0           	0           	0           	0           	0           
 2day-1day       	0           	0           	0           	0           	0           	0           
 2day-1day       	0           	0           	0           	0           	0           	0           
 2day-1day       	0           	1           	1           	1           	1           	1           
 2day-1day       	1           	1           	1           	1           	1           	1           
 2day-1day       	1           	1           	1           	1           	1           	1           
 2day-1day       	1           	1           	1           	1           	1           	1           
 2day-1day       	1           	1           	1           	1           	1           	1           
 2day-1day       	1           	1           	1           	1           	1           	1           
 2day-1day       	1           	1           	1           	1           	1           	1           
 2day-1day       	1           	1           	1           	1           	1           	1           
 2day-1day       	1           	0           	0           	0           	0           	0           
 2day-1day       	0           	0           	0           	0           	0           	0           
 2day-1day       	0           	0           	0           	0           	0           	0           
 2day-1day       	0           	0           	0           	0           	0           	0           
 2day-1day       	0           	1           	1           	1           	1           	1           
 2day-1day       	1           	1           	1           	1           	1           	1           
 2day-1day       	1           	1           	1           	1           	1           	1           
 2day-1day       	1           	1           	1           	1           	1           	1           
 2day-1day       	1           	1           	1           	1           	1           	1           
 2day-1day       	1           	1           	1           	1           	1           	1           
 2day-1day       	1           	1           	1           	1           	1           	1           
 2day-1day       	1           	1           	1           	1           	1           	1           
;
 2days2days      	1           	1           	1           	1           	1           	1           
 2days2days      	1           	1           	1           	1           	1           	1           
 2days2days      	1           	1           	1           	1           	1           	1           
 2days2days      	1           	1           	1           	1           	1           	1           
 2days2days      	1           	1           	1           	1           	1           	1           
 2days2days      	1           	1           	1           	1           	1           	1           
 2days2days      	1           	1           	1           	1           	1           	1           
 2days2days      	1           	1           	1           	1           	1           	1           
 2days2days      	1           	0           	0           	0           	0           	0           
 2days2days      	0           	0           	0           	0           	0           	0           
 2days2days      	0           	0           	0           	0           	0           	0           
 2days2days      	0           	0           	0           	0           	0           	0           
 2days2days      	0           	0           	0           	0           	0           	0           
 2days2days      	0           	0           	0           	0           	0           	0           
 2days2days      	0           	0           	0           	0           	0           	0           
 2days2days      	0           	0           	0           	0           	0           	0           
 2days2days      	0           	1           	1           	1           	1           	1           
 2days2days      	1           	1           	1           	1           	1           	1           
 2days2days      	1           	1           	1           	1           	1           	1           
 2days2days      	1           	1           	1           	1           	1           	1           
 2days2days      	1           	1           	1           	1           	1           	1           
 2days2days      	1           	1           	1           	1           	1           	1           
 2days2days      	1           	1           	1           	1           	1           	1           
 2days2days      	1           	1           	1           	1           	1           	1           
 2days2days      	1           	0           	0           	0           	0           	0           
 2days2days      	0           	0           	0           	0           	0           	0           
 2days2days      	0           	0           	0           	0           	0           	0           
 2days2days      	0           	0           	0           	0           	0           	0           
 2days2days      	0           	0           	0           	0           	0           	0           
 2days2days      	0           	0           	0           	0           	0           	0           
 2days2days      	0           	0           	0           	0           	0           	0           
 2days2days      	0           	0           	0           	0           	0           	0           
;
 3dayscut        	1           	1           	1           	1           	1           	1           
 3dayscut        	1           	1           	1           	1           	1           	1           
 3dayscut        	1           	1           	1           	1           	1           	1           
 3dayscut        	1           	1           	1           	1           	1           	1           
 3dayscut        	1           	1           	1           	1           	1           	1           
 3dayscut        	1           	1           	1           	1           	1           	1           
 3dayscut        	1           	1           	1           	1           	1           	1           
 3dayscut        	1           	1           	1           	1           	1           	1           
 3dayscut        	1           	0           	0           	0           	0           	0           
 3dayscut        	0           	0           	0           	0           	0           	0           
 3dayscut        	0           	0           	0           	0           	0           	0           