; Filename: ./networks/Base model_withFCV.inp
; WNTR: 0.2.1
; Created: 2019-11-20 16:15:52
[TITLE]
Scenario: Base
Date: 08/11/2019 15:16:54

[JUNCTIONS]
;ID                      Elevation       Demand Pattern                 
 7__demand__1                      10            0.28 4                          ;
 7__demand__0                      10            0.42 4                          ;
 4__demand__1                      10            0.28 4                          ;
 4__demand__0                      30            0.42 4                          ;
 3__demand__1                      10            0.28 4                          ;
 3__demand__0                      10            0.42 4                          ;
 6__demand__1                      10            0.28 4                          ;
 6__demand__0                      10            0.42 4                          ;
 5__demand__1                      10            0.28 4                          ;
 5__demand__0                      10            0.42 4                          ;
 2__demand__1                      10            0.28 4                          ;
 2__demand__0                      10            0.42 4                          ;
 7                                 30               0 1                          ;
 4                                 30               0 1                          ;
 3                                 30               0 1                          ;
 6                                 30               0 1                          ;
 5                                 30               0 1                          ;
 2                                 30               0 1                          ;
 J-1                               74            -4.2 rationing_pattern_72h      ;
 1                                 65               0 1                          ;
 8                                 65               0 1                          ;

[RESERVOIRS]
;ID                                   Head                  Pattern

[TANKS]
;ID                              Elevation           Init Level            Min Level            Max Level             Diameter           Min Volume Volume Curve        
 T12                               36               1               0               1    5.2338924877 0.0028316846369                        ;
 T11                               33               1               0               1    6.4101829818 0.0028316846369                        ;
 T10                               36               1               0               1    5.2338924877 0.0028316846369                        ;
 T9                                33               1               0               1    6.4101829818 0.0028316846369                        ;
 T8                                36               1               0               1    5.2338924877 0.0028316846369                        ;
 T7                                33               1               0               1    6.4101829818 0.0028316846369                        ;
 T6                                36               1               0               1    5.2338924877 0.0028316846369                        ;
 T5                                33               1               0               1    6.4101829818 0.0028316846369                        ;
 T4                                36               1               0               1    5.2338924877 0.0028316846369                        ;
 T3                                33               1               0               1    6.4101829818 0.0028316846369                        ;
 T2                                36               1               0               1    5.2338924877 0.0028316846369                        ;
 T1                                33               1               0               1    6.4101829818 0.0028316846369                        ;
 T0                                70               3               0               3               8 0.0028316846369                        ;

[PIPES]
;ID                   Node1                Node2                              Length             Diameter            Roughness           Minor Loss               Status
 2__tank__1           2                    T2                                10    44.390729488             100               0                   CV   ;
 2__demand__0         T1                   2__demand__0                       1    51.789842185             100               0                 Open   ;
 2__tank__0           2                    T1                                10    51.789842185             100               0                   CV   ;
 5                    4                    7                                500             100             100               0                 Open   ;
 4                    3                    4                               1000             100             100               0                 Open   ;
 3                    6                    3                                500             100             100               0                 Open   ;
 6                    5                    6                                500             125             100               0                 Open   ;
 2                    2                    5                                500             150             100               0                 Open   ;
 1                    8                    2                                250             150             100               0                 Open   ;
 7__demand__1         T12                  7__demand__1                       1    44.390729488             100               0                 Open   ;
 7__tank__1           7                    T12                               10    44.390729488             100               0                   CV   ;
 7__demand__0         T11                  7__demand__0                       1    51.789842185             100               0                 Open   ;
 7__tank__0           7                    T11                               10    51.789842185             100               0                   CV   ;
 4__demand__1         T10                  4__demand__1                       1    44.390729488             100               0                 Open   ;
 4__tank__1           4                    T10                               10    44.390729488             100               0                   CV   ;
 4__demand__0         T9                   4__demand__0                       1    51.789842185             100               0                 Open   ;
 4__tank__0           4                    T9                                10    51.789842185             100               0                   CV   ;
 3__demand__1         T8                   3__demand__1                       1    44.390729488             100               0                 Open   ;
 3__tank__1           3                    T8                                10    44.390729488             100               0                   CV   ;
 3__demand__0         T7                   3__demand__0                       1    51.789842185             100               0                 Open   ;
 3__tank__0           3                    T7                                10    51.789842185             100               0                   CV   ;
 6__demand__1         T6                   6__demand__1                       1    44.390729488             100               0                 Open   ;
 6__tank__1           6                    T6                                10    44.390729488             100               0                   CV   ;
 6__demand__0         T5                   6__demand__0                       1    51.789842185             100               0                 Open   ;
 6__tank__0           6                    T5                                10    51.789842185             100               0                   CV   ;
 5__demand__1         T4                   5__demand__1                       1    44.390729488             100               0                 Open   ;
 5__tank__1           5                    T4                                10    44.390729488             100               0                   CV   ;
 5__demand__0         T3                   5__demand__0                       1    51.789842185             100               0                 Open   ;
 5__tank__0           5                    T3                                10    51.789842185             100               0                   CV   ;
 2__demand__1         T2                   2__demand__1                       1    44.390729488             100               0                 Open   ;
 P-1                  T0                   J-1                              500             200             130               0                 Open   ;
 7                    T0                   1                                250             150             100               0                 Open   ;

[PUMPS]
;ID                   Node1                Node2                Properties          

[VALVES]
;ID                   Node1                Node2                            Diameter Type              Setting           Minor Loss
 8                    1                    8                                150 FCV              6.5               0   ;

[TAGS]
;type      name       tag       

[DEMANDS]
;ID        Demand     Pattern   

[STATUS]
;ID        Setting   
[PATTERNS]
;ID        Multipliers

1 1.260000 1.040000 0.970000 0.970000 0.890000 1.190000
1 1.280000 0.670000 0.670000 1.340000 2.460000 0.970000
1 0.920000 0.680000 1.430000 0.610000 0.310000 0.780000
1 0.370000 0.670000 1.260000 1.560000 1.190000 1.260000
1 0.600000 1.100000 1.030000 0.730000 0.880000 1.060000
1 0.990000 1.720000 1.120000 1.340000 1.120000 0.970000
1 1.040000 1.150000 0.910000 0.610000 0.680000 0.460000
1 0.510000 0.740000 1.120000 1.340000 1.260000 0.970000
1 0.820000 1.370000 1.030000 0.810000 0.880000 0.810000
1 0.810000

2 0.960000 0.960000 0.960000 0.960000 0.960000 0.960000
2 0.620000 0.000000 0.000000 0.000000 0.000000 0.000000
2 0.800000 1.000000 1.000000 1.000000 1.000000 0.150000
2 0.000000 0.000000 0.000000 0.000000 0.000000 0.000000
2 0.550000 0.920000 0.920000 0.920000 0.920000 0.900000
2 0.900000 0.450000 0.000000 0.000000 0.000000 0.000000
2 0.000000 0.700000 1.000000 1.000000 1.000000 1.000000
2 0.200000 0.000000 0.000000 0.000000 0.000000 0.000000
2 0.000000 0.740000 0.920000 0.920000 0.920000 0.920000
2 0.920000

3 0.980000 1.020000 1.050000 0.990000 0.640000 0.460000
3 0.350000 0.350000 0.350000 0.350000 0.350000 0.350000
3 0.170000 0.170000 0.130000 0.130000 0.130000 0.150000
3 0.150000 0.150000 0.150000 0.150000 0.150000 0.150000
3 0.150000 0.120000 0.100000 0.080000 0.110000 0.090000
3 0.090000 0.080000 0.080000 0.080000 0.080000 0.080000
3 0.080000 0.090000 0.070000 0.070000 0.090000 0.090000
3 0.090000 0.090000 0.090000 0.090000 0.090000 0.090000
3 0.090000 0.080000 0.350000 0.720000 0.820000 0.920000
3 1.000000

4 0.400000 0.400000 0.500000 1.000000 1.600000 1.800000
4 2.000000 1.500000 1.200000 1.000000 0.800000 0.600000
4 0.500000 0.600000 0.800000 1.000000 1.600000 2.000000
4 1.800000 1.000000 0.600000 0.400000 0.300000 0.400000

nowatercut 1.000000 1.000000 1.000000 1.000000 1.000000 1.000000
nowatercut 1.000000 1.000000 1.000000 1.000000 1.000000 1.000000
nowatercut 1.000000 1.000000 1.000000 1.000000 1.000000 1.000000
nowatercut 1.000000 1.000000 1.000000 1.000000 1.000000 1.000000
nowatercut 1.000000 1.000000 1.000000 1.000000 1.000000 1.000000
nowatercut 1.000000 1.000000 1.000000 1.000000 1.000000 1.000000
nowatercut 1.000000 1.000000 1.000000 1.000000 1.000000 1.000000
nowatercut 1.000000 1.000000 1.000000 1.000000 1.000000 1.000000
nowatercut 1.000000 1.000000 1.000000 1.000000 1.000000 1.000000
nowatercut 1.000000 1.000000 1.000000 1.000000 1.000000 1.000000
nowatercut 1.000000 1.000000 1.000000 1.000000 1.000000 1.000000
nowatercut 1.000000 1.000000 1.000000 1.000000 1.000000 1.000000
nowatercut 1.000000 1.000000 1.000000 1.000000 1.000000 1.000000
nowatercut 1.000000 1.000000 1.000000 1.000000 1.000000 1.000000
nowatercut 1.000000 1.000000 1.000000 1.000000 1.000000 1.000000
nowatercut 1.000000 1.000000 1.000000 1.000000 1.000000 1.000000
nowatercut 1.000000 1.000000 1.000000 1.000000 1.000000 1.000000
nowatercut 1.000000 1.000000 1.000000 1.000000 1.000000 1.000000
nowatercut 1.000000 1.000000 1.000000 1.000000 1.000000 1.000000
nowatercut 1.000000 1.000000 1.000000 1.000000 1.000000 1.000000
nowatercut 1.000000 1.000000 1.000000 1.000000 1.000000 1.000000
nowatercut 1.000000 1.000000 1.000000 1.000000 1.000000 1.000000
nowatercut 1.000000 1.000000 1.000000 1.000000 1.000000 1.000000
nowatercut 1.000000 1.000000 1.000000 1.000000 1.000000 1.000000
nowatercut 1.000000 1.000000 1.000000 1.000000 1.000000 1.000000
nowatercut 1.000000 1.000000 1.000000 1.000000 1.000000 1.000000
nowatercut 1.000000 1.000000 1.000000 1.000000 1.000000 1.000000
nowatercut 1.000000 1.000000 1.000000 1.000000 1.000000 1.000000
nowatercut 1.000000 1.000000 1.000000 1.000000 1.000000 1.000000
nowatercut 1.000000 1.000000 1.000000 1.000000 1.000000 1.000000
nowatercut 1.000000 1.000000 1.000000 1.000000 1.000000 1.000000
nowatercut 1.000000 1.000000 1.000000 1.000000 1.000000 1.000000

6hrs 1.000000 1.000000 1.000000 1.000000 1.000000 1.000000
6hrs 1.000000 0.000000 0.000000 0.000000 0.000000 0.000000
6hrs 0.000000 1.000000 1.000000 1.000000 1.000000 1.000000
6hrs 1.000000 0.000000 0.000000 0.000000 0.000000 0.000000
6hrs 0.000000 1.000000 1.000000 1.000000 1.000000 1.000000
6hrs 1.000000 0.000000 0.000000 0.000000 0.000000 0.000000
6hrs 0.000000 1.000000 1.000000 1.000000 1.000000 1.000000
6hrs 1.000000 0.000000 0.000000 0.000000 0.000000 0.000000
6hrs 0.000000 1.000000 1.000000 1.000000 1.000000 1.000000
6hrs 1.000000 0.000000 0.000000 0.000000 0.000000 0.000000
6hrs 0.000000 1.000000 1.000000 1.000000 1.000000 1.000000
6hrs 1.000000 0.000000 0.000000 0.000000 0.000000 0.000000
6hrs 0.000000 1.000000 1.000000 1.000000 1.000000 1.000000
6hrs 1.000000 0.000000 0.000000 0.000000 0.000000 0.000000
6hrs 0.000000 1.000000 1.000000 1.000000 1.000000 1.000000
6hrs 1.000000 0.000000 0.000000 0.000000 0.000000 0.000000
6hrs 0.000000 1.000000 1.000000 1.000000 1.000000 1.000000
6hrs 1.000000 0.000000 0.000000 0.000000 0.000000 0.000000
6hrs 0.000000 1.000000 1.000000 1.000000 1.000000 1.000000
6hrs 1.000000 0.000000 0.000000 0.000000 0.000000 0.000000
6hrs 0.000000 1.000000 1.000000 1.000000 1.000000 1.000000
6hrs 1.000000 0.000000 0.000000 0.000000 0.000000 0.000000
6hrs 0.000000 1.000000 1.000000 1.000000 1.000000 1.000000
6hrs 1.000000 0.000000 0.000000 0.000000 0.000000 0.000000
6hrs 0.000000 1.000000 1.000000 1.000000 1.000000 1.000000
6hrs 1.000000 0.000000 0.000000 0.000000 0.000000 0.000000
6hrs 0.000000 1.000000 1.000000 1.000000 1.000000 1.000000
6hrs 1.000000 0.000000 0.000000 0.000000 0.000000 0.000000
6hrs 0.000000 1.000000 1.000000 1.000000 1.000000 1.000000
6hrs 1.000000 0.000000 0.000000 0.000000 0.000000 0.000000
6hrs 0.000000 1.000000 1.000000 1.000000 1.000000 1.000000
6hrs 1.000000 0.000000 0.000000 0.000000 0.000000 0.000000

12hrs 1.000000 1.000000 1.000000 1.000000 1.000000 1.000000
12hrs 1.000000 1.000000 1.000000 1.000000 1.000000 1.000000
12hrs 0.000000 0.000000 0.000000 0.000000 0.000000 0.000000
12hrs 0.000000 0.000000 0.000000 0.000000 0.000000 0.000000
12hrs 0.000000 1.000000 1.000000 1.000000 1.000000 1.000000
12hrs 1.000000 1.000000 1.000000 1.000000 1.000000 1.000000
12hrs 0.000000 0.000000 0.000000 0.000000 0.000000 0.000000
12hrs 0.000000 0.000000 0.000000 0.000000 0.000000 0.000000
12hrs 0.000000 1.000000 1.000000 1.000000 1.000000 1.000000
12hrs 1.000000 1.000000 1.000000 1.000000 1.000000 1.000000
12hrs 0.000000 0.000000 0.000000 0.000000 0.000000 0.000000
12hrs 0.000000 0.000000 0.000000 0.000000 0.000000 0.000000
12hrs 0.000000 1.000000 1.000000 1.000000 1.000000 1.000000
12hrs 1.000000 1.000000 1.000000 1.000000 1.000000 1.000000
12hrs 0.000000 0.000000 0.000000 0.000000 0.000000 0.000000
12hrs 0.000000 0.000000 0.000000 0.000000 0.000000 0.000000
12hrs 0.000000 1.000000 1.000000 1.000000 1.000000 1.000000
12hrs 1.000000 1.000000 1.000000 1.000000 1.000000 1.000000
12hrs 0.000000 0.000000 0.000000 0.000000 0.000000 0.000000
12hrs 0.000000 0.000000 0.000000 0.000000 0.000000 0.000000
12hrs 0.000000 1.000000 1.000000 1.000000 1.000000 1.000000
12hrs 1.000000 1.000000 1.000000 1.000000 1.000000 1.000000
12hrs 0.000000 0.000000 0.000000 0.000000 0.000000 0.000000
12hrs 0.000000 0.000000 0.000000 0.000000 0.000000 0.000000
12hrs 0.000000 1.000000 1.000000 1.000000 1.000000 1.000000
12hrs 1.000000 1.000000 1.000000 1.000000 1.000000 1.000000
12hrs 0.000000 0.000000 0.000000 0.000000 0.000000 0.000000
12hrs 0.000000 0.000000 0.000000 0.000000 0.000000 0.000000
12hrs 0.000000 1.000000 1.000000 1.000000 1.000000 1.000000
12hrs 1.000000 1.000000 1.000000 1.000000 1.000000 1.000000
12hrs 0.000000 0.000000 0.000000 0.000000 0.000000 0.000000
12hrs 0.000000 0.000000 0.000000 0.000000 0.000000 0.000000

1day 1.000000 1.000000 1.000000 1.000000 1.000000 1.000000
1day 1.000000 1.000000 1.000000 1.000000 1.000000 1.000000
1day 1.000000 1.000000 1.000000 1.000000 1.000000 1.000000
1day 1.000000 1.000000 1.000000 1.000000 1.000000 1.000000
1day 1.000000 0.000000 0.000000 0.000000 0.000000 0.000000
1day 0.000000 0.000000 0.000000 0.000000 0.000000 0.000000
1day 0.000000 0.000000 0.000000 0.000000 0.000000 0.000000
1day 0.000000 0.000000 0.000000 0.000000 0.000000 0.000000
1day 0.000000 1.000000 1.000000 1.000000 1.000000 1.000000
1day 1.000000 1.000000 1.000000 1.000000 1.000000 1.000000
1day 1.000000 1.000000 1.000000 1.000000 1.000000 1.000000
1day 1.000000 1.000000 1.000000 1.000000 1.000000 1.000000
1day 1.000000 0.000000 0.000000 0.000000 0.000000 0.000000
1day 0.000000 0.000000 0.000000 0.000000 0.000000 0.000000
1day 0.000000 0.000000 0.000000 0.000000 0.000000 0.000000
1day 0.000000 0.000000 0.000000 0.000000 0.000000 0.000000
1day 0.000000 1.000000 1.000000 1.000000 1.000000 1.000000
1day 1.000000 1.000000 1.000000 1.000000 1.000000 1.000000
1day 1.000000 1.000000 1.000000 1.000000 1.000000 1.000000
1day 1.000000 1.000000 1.000000 1.000000 1.000000 1.000000
1day 1.000000 0.000000 0.000000 0.000000 0.000000 0.000000
1day 0.000000 0.000000 0.000000 0.000000 0.000000 0.000000
1day 0.000000 0.000000 0.000000 0.000000 0.000000 0.000000
1day 0.000000 0.000000 0.000000 0.000000 0.000000 0.000000
1day 0.000000 1.000000 1.000000 1.000000 1.000000 1.000000
1day 1.000000 1.000000 1.000000 1.000000 1.000000 1.000000
1day 1.000000 1.000000 1.000000 1.000000 1.000000 1.000000
1day 1.000000 1.000000 1.000000 1.000000 1.000000 1.000000
1day 1.000000 0.000000 0.000000 0.000000 0.000000 0.000000
1day 0.000000 0.000000 0.000000 0.000000 0.000000 0.000000
1day 0.000000 0.000000 0.000000 0.000000 0.000000 0.000000
1day 0.000000 0.000000 0.000000 0.000000 0.000000 0.000000

2day-1day 1.000000 1.000000 1.000000 1.000000 1.000000 1.000000
2day-1day 1.000000 1.000000 1.000000 1.000000 1.000000 1.000000
2day-1day 1.000000 1.000000 1.000000 1.000000 1.000000 1.000000
2day-1day 1.000000 1.000000 1.000000 1.000000 1.000000 1.000000
2day-1day 1.000000 1.000000 1.000000 1.000000 1.000000 1.000000
2day-1day 1.000000 1.000000 1.000000 1.000000 1.000000 1.000000
2day-1day 1.000000 1.000000 1.000000 1.000000 1.000000 1.000000
2day-1day 1.000000 1.000000 1.000000 1.000000 1.000000 1.000000
2day-1day 1.000000 0.000000 0.000000 0.000000 0.000000 0.000000
2day-1day 0.000000 0.000000 0.000000 0.000000 0.000000 0.000000
2day-1day 0.000000 0.000000 0.000000 0.000000 0.000000 0.000000
2day-1day 0.000000 0.000000 0.000000 0.000000 0.000000 0.000000
2day-1day 0.000000 1.000000 1.000000 1.000000 1.000000 1.000000
2day-1day 1.000000 1.000000 1.000000 1.000000 1.000000 1.000000
2day-1day 1.000000 1.000000 1.000000 1.000000 1.000000 1.000000
2day-1day 1.000000 1.000000 1.000000 1.000000 1.000000 1.000000
2day-1day 1.000000 1.000000 1.000000 1.000000 1.000000 1.000000
2day-1day 1.000000 1.000000 1.000000 1.000000 1.000000 1.000000
2day-1day 1.000000 1.000000 1.000000 1.000000 1.000000 1.000000
2day-1day 1.000000 1.000000 1.000000 1.000000 1.000000 1.000000
2day-1day 1.000000 0.000000 0.000000 0.000000 0.000000 0.000000
2day-1day 0.000000 0.000000 0.000000 0.000000 0.000000 0.000000
2day-1day 0.000000 0.000000 0.000000 0.000000 0.000000 0.000000
2day-1day 0.000000 0.000000 0.000000 0.000000 0.000000 0.000000
2day-1day 0.000000 1.000000 1.000000 1.000000 1.000000 1.000000
2day-1day 1.000000 1.000000 1.000000 1.000000 1.000000 1.000000
2day-1day 1.000000 1.000000 1.000000 1.000000 1.000000 1.000000
2day-1day 1.000000 1.000000 1.000000 1.000000 1.000000 1.000000
2day-1day 1.000000 1.000000 1.000000 1.000000 1.000000 1.000000
2day-1day 1.000000 1.000000 1.000000 1.000000 1.000000 1.000000
2day-1day 1.000000 1.000000 1.000000 1.000000 1.000000 1.000000
2day-1day 1.000000 1.000000 1.000000 1.000000 1.000000 1.000000

2days2days 1.000000 1.000000 1.000000 1.000000 1.000000 1.000000
2days2days 1.000000 1.000000 1.000000 1.000000 1.000000 1.000000
2days2days 1.000000 1.000000 1.000000 1.000000 1.000000 1.000000
2days2days 1.000000 1.000000 1.000000 1.000000 1.000000 1.000000
2days2days 1.000000 1.000000 1.000000 1.000000 1.000000 1.000000
2days2days 1.000000 1.000000 1.000000 1.000000 1.000000 1.000000
2days2days 1.000000 1.000000 1.000000 1.000000 1.000000 1.000000
2days2days 1.000000 1.000000 1.000000 1.000000 1.000000 1.000000
2days2days 1.000000 0.000000 0.000000 0.000000 0.000000 0.000000
2days2days 0.000000 0.000000 0.000000 0.000000 0.000000 0.000000
2days2days 0.000000 0.000000 0.000000 0.000000 0.000000 0.000000
2days2days 0.000000 0.000000 0.000000 0.000000 0.000000 0.000000
2days2days 0.000000 0.000000 0.000000 0.000000 0.000000 0.000000
2days2days 0.000000 0.000000 0.000000 0.000000 0.000000 0.000000
2days2days 0.000000 0.000000 0.000000 0.000000 0.000000 0.000000
2days2days 0.000000 0.000000 0.000000 0.000000 0.000000 0.000000
2days2days 0.000000 1.000000 1.000000 1.000000 1.000000 1.000000
2days2days 1.000000 1.000000 1.000000 1.000000 1.000000 1.000000
2days2days 1.000000 1.000000 1.000000 1.000000 1.000000 1.000000
2days2days 1.000000 1.000000 1.000000 1.000000 1.000000 1.000000
2days2days 1.000000 1.000000 1.000000 1.000000 1.000000 1.000000
2days2days 1.000000 1.000000 1.000000 1.000000 1.000000 1.000000
2days2days 1.000000 1.000000 1.000000 1.000000 1.000000 1.000000
2days2days 1.000000 1.000000 1.000000 1.000000 1.000000 1.000000
2days2days 1.000000 0.000000 0.000000 0.000000 0.000000 0.000000
2days2days 0.000000 0.000000 0.000000 0.000000 0.000000 0.000000
2days2days 0.000000 0.000000 0.000000 0.000000 0.000000 0.000000
2days2days 0.000000 0.000000 0.000000 0.000000 0.000000 0.000000
2days2days 0.000000 0.000000 0.000000 0.000000 0.000000 0.000000
2days2days 0.000000 0.000000 0.000000 0.000000 0.000000 0.000000
2days2days 0.000000 0.000000 0.000000 0.000000 0.000000 0.000000
2days2days 0.000000 0.000000 0.000000 0.000000 0.000000 0.000000

3dayscut 1.000000 1.000000 1.000000 1.000000 1.000000 1.000000
3dayscut 1.000000 1.000000 1.000000 1.000000 1.000000 1.000000
3dayscut 1.000000 1.000000 1.000000 1.000000 1.000000 1.000000
3dayscut 1.000000 1.000000 1.000000 1.000000 1.000000 1.000000
3dayscut 1.000000 1.000000 1.000000 1.000000 1.000000 1.000000
3dayscut 1.000000 1.000000 1.000000 1.000000 1.000000 1.000000
3dayscut 1.000000 1.000000 1.000000 1.000000 1.000000 1.000000
3dayscut 1.000000 1.000000 1.000000 1.000000 1.000000 1.000000
3dayscut 1.000000 0.000000 0.000000 0.000000 0.000000 0.000000
3dayscut 0.000000 0.000000 0.000000 0.000000 0.000000 0.000000
3dayscut 0.000000 0.000000 0.000000 0.000000 0.000000 0.000000
3dayscut 0.000000 0.000000 0.000000 0.000000 0.000000 0.000000
3dayscut 0.000000 0.000000 0.000000 0.000000 0.000000 0.000000
3dayscut 0.000000 0.000000 0.000000 0.000000 0.000000 0.000000
3dayscut 0.000000 0.000000 0.000000 0.000000 0.000000 0.000000
3dayscut 0.000000 0.000000 0.000000 0.000000 0.000000 0.000000
3dayscut 0.000000 0.000000 0.000000 0.000000 0.000000 0.000000
3dayscut 0.000000 0.000000 0.000000 0.000000 0.000000 0.000000
3dayscut 0.000000 0.000000 0.000000 0.000000 0.000000 0.000000
3dayscut 0.000000 0.000000 0.000000 0.000000 0.000000 0.000000
3dayscut 0.000000 1.000000 1.000000 1.000000 1.000000 1.000000
3dayscut 1.000000 1.000000 1.000000 1.000000 1.000000 1.000000
3dayscut 1.000000 1.000000 1.000000 1.000000 1.000000 1.000000
3dayscut 1.000000 1.000000 1.000000 1.000000 1.000000 1.000000
3dayscut 1.000000 1.000000 1.000000 1.000000 1.000000 1.000000
3dayscut 1.000000 1.000000 1.000000 1.000000 1.000000 1.000000
3dayscut 1.000000 1.000000 1.000000 1.000000 1.000000 1.000000
3dayscut 1.000000 1.000000 1.000000 1.000000 1.000000 1.000000
3dayscut 1.000000 1.000000 1.000000 1.000000 1.000000 1.000000
3dayscut 1.000000 1.000000 1.000000 1.000000 1.000000 1.000000
3dayscut 1.000000 1.000000 1.000000 1.000000 1.000000 1.000000
3dayscut 1.000000 1.000000 1.000000 1.000000 1.000000 1.000000

rationing_pattern_6h 0.000000 0.000000 0.000000 0.000000 0.000000 0.000000
rationing_pattern_6h 1.000000 1.000000 1.000000 1.000000 1.000000 1.000000

rationing_pattern_12h 0.000000 0.000000 0.000000 0.000000 0.000000 0.000000
rationing_pattern_12h 0.000000 0.000000 0.000000 0.000000 0.000000 0.000000
rationing_pattern_12h 1.000000 1.000000 1.000000 1.000000 1.000000 1.000000
rationing_pattern_12h 1.000000 1.000000 1.000000 1.000000 1.000000 1.000000

rationing_pattern_24h 0.000000 0.000000 0.000000 0.000000 0.000000 0.000000
rationing_pattern_24h 0.000000 0.000000 0.000000 0.000000 0.000000 0.000000
rationing_pattern_24h 0.000000 0.000000 0.000000 0.000000 0.000000 0.000000
rationing_pattern_24h 0.000000 0.000000 0.000000 0.000000 0.000000 0.000000
rationing_pattern_24h 1.000000 1.000000 1.000000 1.000000 1.000000 1.000000
rationing_pattern_24h 1.000000 1.000000 1.000000 1.000000 1.000000 1.000000
rationing_pattern_24h 1.000000 1.000000 1.000000 1.000000 1.000000 1.000000
rationing_pattern_24h 1.000000 1.000000 1.000000 1.000000 1.000000 1.000000

rationing_pattern_48h 0.000000 0.000000 0.000000 0.000000 0.000000 0.000000
rationing_pattern_48h 0.000000 0.000000 0.000000 0.000000 0.000000 0.000000
rationing_pattern_48h 0.000000 0.000000 0.000000 0.000000 0.000000 0.000000
rationing_pattern_48h 0.000000 0.000000 0.000000 0.000000 0.000000 0.000000
rationing_pattern_48h 0.000000 0.000000 0.000000 0.000000 0.000000 0.000000
rationing_pattern_48h 0.000000 0.000000 0.000000 0.000000 0.000000 0.000000
rationing_pattern_48h 0.000000 0.000000 0.000000 0.000000 0.000000 0.000000
rationing_pattern_48h 0.000000 0.000000 0.000000 0.000000 0.000000 0.000000
rationing_pattern_48h 1.000000 1.000000 1.000000 1.000000 1.000000 1.000000
rationing_pattern_48h 1.000000 1.000000 1.000000 1.000000 1.000000 1.000000
rationing_pattern_48h 1.000000 1.000000 1.000000 1.000000 1.000000 1.000000
rationing_pattern_48h 1.000000 1.000000 1.000000 1.000000 1.000000 1.000000
rationing_pattern_48h 1.000000 1.000000 1.000000 1.000000 1.000000 1.000000
rationing_pattern_48h 1.000000 1.000000 1.000000 1.000000 1.000000 1.000000
rationing_pattern_48h 1.000000 1.000000 1.000000 1.000000 1.000000 1.000000
rationing_pattern_48h 1.000000 1.000000 1.000000 1.000000 1.000000 1.000000

rationing_pattern_72h 0.000000 0.000000 0.000000 0.000000 0.000000 0.000000
rationing_pattern_72h 0.000000 0.000000 0.000000 0.000000 0.000000 0.000000
rationing_pattern_72h 0.000000 0.000000 0.000000 0.000000 0.000000 0.000000
rationing_pattern_72h 0.000000 0.000000 0.000000 0.000000 0.000000 0.000000
rationing_pattern_72h 0.000000 0.000000 0.000000 0.000000 0.000000 0.000000
rationing_pattern_72h 0.000000 0.000000 0.000000 0.000000 0.000000 0.000000
rationing_pattern_72h 0.000000 0.000000 0.000000 0.000000 0.000000 0.000000
rationing_pattern_72h 0.000000 0.000000 0.000000 0.000000 0.000000 0.000000
rationing_pattern_72h 0.000000 0.000000 0.000000 0.000000 0.000000 0.000000
rationing_pattern_72h 0.000000 0.000000 0.000000 0.000000 0.000000 0.000000
rationing_pattern_72h 0.000000 0.000000 0.000000 0.000000 0.000000 0.000000
rationing_pattern_72h 0.000000 0.000000 0.000000 0.000000 0.000000 0.000000
rationing_pattern_72h 1.000000 1.000000 1.000000 1.000000 1.000000 1.000000
rationing_pattern_72h 1.000000 1.000000 1.000000 1.000000 1.000000 1.000000
rationing_pattern_72h 1.000000 1.000000 1.000000 1.000000 1.000000 1.000000
rationing_pattern_72h 1.000000 1.000000 1.000000 1.000000 1.000000 1.000000
rationing_pattern_72h 1.000000 1.000000 1.000000 1.000000 1.000000 1.000000
rationing_pattern_72h 1.000000 1.000000 1.000000 1.000000 1.000000 1.000000
rationing_pattern_72h 1.000000 1.000000 1.000000 1.000000 1.000000 1.000000
rationing_pattern_72h 1.000000 1.000000 1.000000 1.000000 1.000000 1.000000
rationing_pattern_72h 1.000000 1.000000 1.000000 1.000000 1.000000 1.000000
rationing_pattern_72h 1.000000 1.000000 1.000000 1.000000 1.000000 1.000000
rationing_pattern_72h 1.000000 1.000000 1.000000 1.000000 1.000000 1.000000
rationing_pattern_72h 1.000000 1.000000 1.000000 1.000000 1.000000 1.000000

[CURVES]
;ID         X-Value      Y-Value     

[CONTROLS]

[RULES]

[ENERGY]
GLOBAL EFFICIENCY      75.0000
GLOBAL PRICE           0.0000
DEMAND CHARGE          0.0000

[EMITTERS]
;ID        Flow coefficient

[QUALITY]
7          1.0       
4          1.0       
3          1.0       
6          1.0       
5          1.0       
2          1.0       

[SOURCES]
;Node      Type       Quality    Pattern   

[REACTIONS]
;Type           Pipe/Tank               Coefficient

 ORDER BULK 1
 ORDER TANK 1
 ORDER WALL 1